[TITLE]
;;Project Title/Notes

[OPTIONS]
;;Option            	Value
FLOW_UNITS          	CMS
INFILTRATION        	HORTON
FLOW_ROUTING        	DYNWAVE
LINK_OFFSETS        	DEPTH
MIN_SLOPE           	0
ALLOW_PONDING       	NO
SKIP_STEADY_STATE   	NO

START_DATE          	09/01/2024
START_TIME          	00:00:00
REPORT_START_DATE   	09/01/2020
REPORT_START_TIME   	00:00:00
END_DATE            	10/01/2024
END_TIME            	00:00:00
SWEEP_START         	09/01
SWEEP_END           	09/30
DRY_DAYS            	0
REPORT_STEP         	00:05:00
WET_STEP            	00:01:00
DRY_STEP            	00:10:00
ROUTING_STEP        	0:00:05 
RULE_STEP           	00:05:00

INERTIAL_DAMPING    	PARTIAL
NORMAL_FLOW_LIMITED 	BOTH
FORCE_MAIN_EQUATION 	D-W
VARIABLE_STEP       	0.75
LENGTHENING_STEP    	0
MIN_SURFAREA        	0.10
MAX_TRIALS          	12
HEAD_TOLERANCE      	0.0002
SYS_FLOW_TOL        	5
LAT_FLOW_TOL        	5
MINIMUM_STEP        	0.5
THREADS             	2

[EVAPORATION]
;;Data Source   	Parameters
;;--------------	----------------
CONSTANT        	4.0
DRY_ONLY        	NO

[RAINGAGES]
;;Name          	Format   	Interval	SCF     	Source    
;;--------------	---------	------	------	----------
rain_gage_ES_1  	VOLUME   	0:05    	1.0     	FILE      	"D:\Jip\Documents\Uni\Master\Thesis\data\precipitation\dat_swmm_rain_data\ES_month_9.dat"	ES        	MM   
rain_gage_Geldrop_1	VOLUME   	0:05    	1.0     	FILE      	"D:\Jip\Documents\Uni\Master\Thesis\data\precipitation\dat_swmm_rain_data\GE_month_9.dat"	GE        	MM   
rain_gage_Zuid_1	VOLUME   	0:05    	1.0     	FILE      	"D:\Jip\Documents\Uni\Master\Thesis\data\precipitation\dat_swmm_rain_data\RZ1_month_9.dat"	RZ1       	MM   
rain_gage_Zuid_2	VOLUME   	0:05    	1.0     	FILE      	"D:\Jip\Documents\Uni\Master\Thesis\data\precipitation\dat_swmm_rain_data\RZ2_month_9.dat"	RZ2       	MM   

[SUBCATCHMENTS]
;;Name          	Rain Gage       	Outlet          	Area    	%Imperv 	Width   	%Slope  	CurbLen 	SnowPack        
;;--------------	----------------	----------------	--------	--------	--------	--------	--------	----------------
c_24_catchment  	rain_gage_ES_1  	c_24_vr_storage_175	1918.8  	50      	400     	0.5     	0       	                
c_23_catchment  	rain_gage_ES_1  	c_23_vr_storage_7	3.0     	50      	400     	0.5     	0       	                
c_22_catchment  	rain_gage_ES_1  	c_22_vr_storage_5	1.6     	50      	400     	0.5     	0       	                
c_21_catchment  	rain_gage_ES_1  	c_21_vr_storage_7	3.2     	50      	400     	0.5     	0       	                
c_12_catchment  	rain_gage_ES_1  	c_12_vr_storage_8	3.7     	50      	400     	0.5     	0       	                
c_20_catchment  	rain_gage_ES_1  	c_20_vr_storage_13	10      	50      	400     	0.5     	0       	                
c_19_catchment  	rain_gage_ES_1  	c_19_vr_storage_7	3.4     	50      	400     	0.5     	0       	                
c_10_catchment  	rain_gage_ES_1  	c_10_vr_storage_10	6.2     	50      	400     	0.5     	0       	                
c_16_catchment  	rain_gage_ES_1  	c_16_vr_storage_20	26.4    	50      	400     	0.5     	0       	                
c_15_catchment  	rain_gage_ES_1  	c_15_vr_storage_24	33.9    	50      	400     	0.5     	0       	                
c_14_catchment  	rain_gage_ES_1  	c_14_vr_storage_24	35.6    	50      	400     	0.5     	0       	                
c_129_catchment 	rain_gage_Geldrop_1	c_129_vr_storage_2	5       	50      	400     	0.5     	0       	                
c_128_catchment 	rain_gage_Geldrop_1	c_128_vr_storage_64	255.1   	50      	400     	0.5     	0       	                
c_1285_catchment	rain_gage_Geldrop_1	c_1285_vr_storage_10	5.8     	50      	400     	0.5     	0       	                
c_127_catchment 	rain_gage_Geldrop_1	c_127_vr_storage_46	134.9   	50      	400     	0.5     	0       	                
c_126_catchment 	rain_gage_Geldrop_1	c_126_vr_storage_16	15.8    	50      	400     	0.5     	0       	                
c_125_catchment 	rain_gage_Geldrop_1	c_125_vr_storage_8	5.3     	50      	400     	0.5     	0       	                
c_124_catchment 	rain_gage_Geldrop_1	c_124_storage   	1       	50      	400     	0.5     	0       	                
c_136_catchment 	rain_gage_Geldrop_1	c_136_vr_storage_28	50.5    	50      	400     	0.5     	0       	                
c_135_catchment 	rain_gage_Geldrop_1	c_135_vr_storage_18	22      	50      	400     	0.5     	0       	                
c_131_catchment 	rain_gage_Geldrop_1	c_131_vr_storage_18	21.5    	50      	400     	0.5     	0       	                
c_130_catchment 	rain_gage_Geldrop_1	c_130_vr_storage_8	3.9     	50      	400     	0.5     	0       	                
c_134_catchment 	rain_gage_Geldrop_1	c_134_vr_storage_8	5.3     	50      	400     	0.5     	0       	                
c_132_catchment 	rain_gage_Geldrop_1	c_132_vr_storage_8	3.9     	50      	400     	0.5     	0       	                
c_150_catchment 	rain_gage_Zuid_1	c_150_vr_storage_57	205     	50      	400     	0.5     	0       	                
c_123_catchment 	rain_gage_Zuid_1	c_123_vr_storage_40	101.5   	50      	400     	0.5     	0       	                
c_143_catchment 	rain_gage_Zuid_1	c_143_vr_storage_70	308     	50      	400     	0.5     	0       	                
c_147_catchment 	rain_gage_Zuid_1	c_147_vr_storage_4	4.3     	50      	400     	0.5     	0       	                
c_160_catchment 	rain_gage_Zuid_1	c_160_vr_storage_8	5       	50      	400     	0.5     	0       	                
c_145_catchment 	rain_gage_Zuid_1	c_145_vr_storage_4	1       	50      	400     	0.5     	0       	                
c_144_catchment 	rain_gage_Zuid_1	c_144_vr_storage_19	22.8    	50      	400     	0.5     	0       	                
c_142_catchment 	rain_gage_Zuid_1	c_142_vr_storage_35	76.8    	50      	400     	0.5     	0       	                
c_148_catchment 	rain_gage_Zuid_1	c_148_vr_storage_12	11.2    	50      	400     	0.5     	0       	                
c_149_catchment 	rain_gage_Zuid_1	c_149_vr_storage_17	18.3    	50      	400     	0.5     	0       	                
c_151_catchment 	rain_gage_Zuid_1	c_151_vr_storage_22	29.4    	50      	400     	0.5     	0       	                
c_161_catchment 	rain_gage_Zuid_1	c_161_vr_storage_32	68      	50      	400     	0.5     	0       	                
c_138_catchment 	rain_gage_Zuid_1	c_138_vr_storage_22	28.9    	50      	400     	0.5     	0       	                
c_139_catchment 	rain_gage_Zuid_1	c_139_vr_storage_8	4.6     	50      	400     	0.5     	0       	                
c_137_catchment 	rain_gage_Zuid_1	c_137_vr_storage_4	1       	50      	400     	0.5     	0       	                
c_122_catchment 	rain_gage_Zuid_1	c_122_vr_storage_29	52.2    	50      	400     	0.5     	0       	                
c_121_catchment 	rain_gage_Zuid_1	c_121_vr_storage_12	10.3    	50      	400     	0.5     	0       	                
c_120_catchment 	rain_gage_Zuid_1	c_120_vr_storage_8	4.9     	50      	400     	0.5     	0       	                
c_119_catchment 	rain_gage_Zuid_1	c_119_vr_storage_80	393     	50      	400     	0.5     	0       	                
c_100_catchment 	rain_gage_Zuid_1	c_100_vr_storage_10	6.7     	50      	400     	0.5     	0       	                
c_118_catchment 	rain_gage_Zuid_1	c_118_vr_storage_13	11.3    	50      	400     	0.5     	0       	                
c_116_catchment 	rain_gage_Zuid_1	c_116_vr_storage_15	12.9    	50      	400     	0.5     	0       	                
c_114_catchment 	rain_gage_Zuid_1	c_114_vr_storage_10	6.1     	50      	400     	0.5     	0       	                
c_112_catchment 	rain_gage_Zuid_1	c_112_vr_storage_21	28.5    	50      	400     	0.5     	0       	                
c_107_catchment 	rain_gage_Zuid_1	c_107_vr_storage_36	77.2    	50      	400     	0.5     	0       	                
c_107_2_catchment	rain_gage_Zuid_1	c_107_2_vr_storage_12	9       	50      	400     	0.5     	0       	                
c_106_catchment 	rain_gage_Zuid_1	c_106_vr_storage_13	11.2    	50      	400     	0.5     	0       	                
c_99_catchment  	rain_gage_Zuid_1	c_99_vr_storage_41	103.7   	50      	400     	0.5     	0       	                
c_103_catchment 	rain_gage_Zuid_1	c_103_vr_storage_8	3.8     	50      	400     	0.5     	0       	                
c_98_catchment  	rain_gage_Zuid_1	c_98_vr_storage_20	26.2    	50      	400     	0.5     	0       	                

[SUBAREAS]
;;Subcatchment  	N-Imperv  	N-Perv    	S-Imperv  	S-Perv    	PctZero   	RouteTo   	PctRouted 
;;--------------	----------	----------	----------	----------	----------	----------	----------
c_24_catchment  	0.01      	0.1       	2         	0.05      	25        	OUTLET    
c_23_catchment  	0.01      	0.1       	2         	0.05      	25        	OUTLET    
c_22_catchment  	0.01      	0.1       	2         	0.05      	25        	OUTLET    
c_21_catchment  	0.01      	0.1       	2         	0.05      	25        	OUTLET    
c_12_catchment  	0.01      	0.1       	2         	0.05      	25        	OUTLET    
c_20_catchment  	0.01      	0.1       	2         	0.05      	25        	OUTLET    
c_19_catchment  	0.01      	0.1       	2         	0.05      	25        	OUTLET    
c_10_catchment  	0.01      	0.1       	2         	0.05      	25        	OUTLET    
c_16_catchment  	0.01      	0.1       	2         	0.05      	25        	OUTLET    
c_15_catchment  	0.01      	0.1       	2         	0.05      	25        	OUTLET    
c_14_catchment  	0.01      	0.1       	2         	0.05      	25        	OUTLET    
c_129_catchment 	0.01      	0.1       	2         	0.05      	25        	OUTLET    
c_128_catchment 	0.01      	0.1       	2         	0.05      	25        	OUTLET    
c_1285_catchment	0.01      	0.1       	2         	0.05      	25        	OUTLET    
c_127_catchment 	0.01      	0.1       	2         	0.05      	25        	OUTLET    
c_126_catchment 	0.01      	0.1       	2         	0.05      	25        	OUTLET    
c_125_catchment 	0.01      	0.1       	2         	0.05      	25        	OUTLET    
c_124_catchment 	0.01      	0.1       	2         	0.05      	25        	OUTLET    
c_136_catchment 	0.01      	0.1       	2         	0.05      	25        	OUTLET    
c_135_catchment 	0.01      	0.1       	2         	0.05      	25        	OUTLET    
c_131_catchment 	0.01      	0.1       	2         	0.05      	25        	OUTLET    
c_130_catchment 	0.01      	0.1       	2         	0.05      	25        	OUTLET    
c_134_catchment 	0.01      	0.1       	2         	0.05      	25        	OUTLET    
c_132_catchment 	0.01      	0.1       	2         	0.05      	25        	OUTLET    
c_150_catchment 	0.01      	0.1       	2         	0.05      	25        	OUTLET    
c_123_catchment 	0.01      	0.1       	2         	0.05      	25        	OUTLET    
c_143_catchment 	0.01      	0.1       	2         	0.05      	25        	OUTLET    
c_147_catchment 	0.01      	0.1       	2         	0.05      	25        	OUTLET    
c_160_catchment 	0.01      	0.1       	2         	0.05      	25        	OUTLET    
c_145_catchment 	0.01      	0.1       	2         	0.05      	25        	OUTLET    
c_144_catchment 	0.01      	0.1       	2         	0.05      	25        	OUTLET    
c_142_catchment 	0.01      	0.1       	2         	0.05      	25        	OUTLET    
c_148_catchment 	0.01      	0.1       	2         	0.05      	25        	OUTLET    
c_149_catchment 	0.01      	0.1       	2         	0.05      	25        	OUTLET    
c_151_catchment 	0.01      	0.1       	2         	0.05      	25        	OUTLET    
c_161_catchment 	0.01      	0.1       	2         	0.05      	25        	OUTLET    
c_138_catchment 	0.01      	0.1       	2         	0.05      	25        	OUTLET    
c_139_catchment 	0.01      	0.1       	2         	0.05      	25        	OUTLET    
c_137_catchment 	0.01      	0.1       	2         	0.05      	25        	OUTLET    
c_122_catchment 	0.01      	0.1       	2         	0.05      	25        	OUTLET    
c_121_catchment 	0.01      	0.1       	2         	0.05      	25        	OUTLET    
c_120_catchment 	0.01      	0.1       	2         	0.05      	25        	OUTLET    
c_119_catchment 	0.01      	0.1       	2         	0.05      	25        	OUTLET    
c_100_catchment 	0.01      	0.1       	2         	0.05      	25        	OUTLET    
c_118_catchment 	0.01      	0.1       	2         	0.05      	25        	OUTLET    
c_116_catchment 	0.01      	0.1       	2         	0.05      	25        	OUTLET    
c_114_catchment 	0.01      	0.1       	2         	0.05      	25        	OUTLET    
c_112_catchment 	0.01      	0.1       	2         	0.05      	25        	OUTLET    
c_107_catchment 	0.01      	0.1       	2         	0.05      	25        	OUTLET    
c_107_2_catchment	0.01      	0.1       	2         	0.05      	25        	OUTLET    
c_106_catchment 	0.01      	0.1       	2         	0.05      	25        	OUTLET    
c_99_catchment  	0.01      	0.1       	2         	0.05      	25        	OUTLET    
c_103_catchment 	0.01      	0.1       	2         	0.05      	25        	OUTLET    
c_98_catchment  	0.01      	0.1       	2         	0.05      	25        	OUTLET    

[INFILTRATION]
;;Subcatchment  	Param1    	Param2    	Param3    	Param4    	Param5    
;;--------------	----------	----------	----------	----------	----------
c_24_catchment  	3.5       	0.5       	0.26      	7         	0         	MODIFIED_GREEN_AMPT
c_23_catchment  	3.5       	0.5       	0.26      	7         	0         	MODIFIED_GREEN_AMPT
c_22_catchment  	3.5       	0.5       	0.26      	7         	0         	MODIFIED_GREEN_AMPT
c_21_catchment  	3.5       	0.5       	0.26      	7         	0         	MODIFIED_GREEN_AMPT
c_12_catchment  	3.5       	0.5       	0.26      	7         	0         	MODIFIED_GREEN_AMPT
c_20_catchment  	3.5       	0.5       	0.26      	7         	0         	MODIFIED_GREEN_AMPT
c_19_catchment  	3.5       	0.5       	0.26      	7         	0         	MODIFIED_GREEN_AMPT
c_10_catchment  	3.5       	0.5       	0.26      	7         	0         	MODIFIED_GREEN_AMPT
c_16_catchment  	3.5       	0.5       	0.26      	7         	0         	MODIFIED_GREEN_AMPT
c_15_catchment  	3.5       	0.5       	0.26      	7         	0         	MODIFIED_GREEN_AMPT
c_14_catchment  	3.5       	0.5       	0.26      	7         	0         	MODIFIED_GREEN_AMPT
c_129_catchment 	3.5       	0.5       	0.26      	7         	0         	MODIFIED_GREEN_AMPT
c_128_catchment 	3.5       	0.5       	0.26      	7         	0         	MODIFIED_GREEN_AMPT
c_1285_catchment	3.5       	0.5       	0.26      	7         	0         	MODIFIED_GREEN_AMPT
c_127_catchment 	3.5       	0.5       	0.26      	7         	0         	MODIFIED_GREEN_AMPT
c_126_catchment 	3.5       	0.5       	0.26      	7         	0         	MODIFIED_GREEN_AMPT
c_125_catchment 	3.5       	0.5       	0.26      	7         	0         	MODIFIED_GREEN_AMPT
c_124_catchment 	3.5       	0.5       	0.26      	7         	0         	MODIFIED_GREEN_AMPT
c_136_catchment 	3.5       	0.5       	0.26      	7         	0         	MODIFIED_GREEN_AMPT
c_135_catchment 	3.5       	0.5       	0.26      	7         	0         	MODIFIED_GREEN_AMPT
c_131_catchment 	3.5       	0.5       	0.26      	7         	0         	MODIFIED_GREEN_AMPT
c_130_catchment 	3.5       	0.5       	0.26      	7         	0         	MODIFIED_GREEN_AMPT
c_134_catchment 	3.5       	0.5       	0.26      	7         	0         	MODIFIED_GREEN_AMPT
c_132_catchment 	3.5       	0.5       	0.26      	7         	0         	MODIFIED_GREEN_AMPT
c_150_catchment 	3.5       	0.5       	0.26      	7         	0         
c_123_catchment 	3.5       	0.5       	0.26      	7         	0         
c_143_catchment 	3.5       	0.5       	0.26      	7         	0         
c_147_catchment 	3.5       	0.5       	0.26      	7         	0         
c_160_catchment 	3.5       	0.5       	0.26      	7         	0         
c_145_catchment 	3.5       	0.5       	0.26      	7         	0         
c_144_catchment 	3.5       	0.5       	0.26      	7         	0         
c_142_catchment 	3.5       	0.5       	0.26      	7         	0         
c_148_catchment 	3.5       	0.5       	0.26      	7         	0         
c_149_catchment 	3.5       	0.5       	0.26      	7         	0         
c_151_catchment 	3.5       	0.5       	0.26      	7         	0         
c_161_catchment 	3.5       	0.5       	0.26      	7         	0         
c_138_catchment 	3.5       	0.5       	0.26      	7         	0         
c_139_catchment 	3.5       	0.5       	0.26      	7         	0         
c_137_catchment 	3.5       	0.5       	0.26      	7         	0         
c_122_catchment 	3.5       	0.5       	0.26      	7         	0         
c_121_catchment 	3.5       	0.5       	0.26      	7         	0         
c_120_catchment 	3.5       	0.5       	0.26      	7         	0         
c_119_catchment 	3.5       	0.5       	0.26      	7         	0         
c_100_catchment 	3.5       	0.5       	0.26      	7         	0         
c_118_catchment 	3.5       	0.5       	0.26      	7         	0         
c_116_catchment 	3.5       	0.5       	0.26      	7         	0         
c_114_catchment 	3.5       	0.5       	0.26      	7         	0         
c_112_catchment 	3.5       	0.5       	0.26      	7         	0         
c_107_catchment 	3.5       	0.5       	0.26      	7         	0         
c_107_2_catchment	3.5       	0.5       	0.26      	7         	0         
c_106_catchment 	3.5       	0.5       	0.26      	7         	0         
c_99_catchment  	3.5       	0.5       	0.26      	7         	0         
c_103_catchment 	3.5       	0.5       	0.26      	7         	0         
c_98_catchment  	3.5       	0.5       	0.26      	7         	0         

[JUNCTIONS]
;;Name          	Elevation 	MaxDepth  	InitDepth 	SurDepth  	Aponded   
;;--------------	----------	----------	----------	----------	----------
Nod_100         	14.480000 	2.970000  	0.000000  	0.000000  	0.000000  
Mierlo_2        	16.300000 	3.040000  	0.000000  	0         	0         
Nod_890         	12.930000 	3.000000  	0.000000  	0.000000  	1000.00000
Nod_891         	13.000000 	2.870000  	0.000000  	0.000000  	1000.00000
Nod_892         	13.060000 	4         	0.000000  	0.000000  	1000.00000
Nod_A*HLCMRZ1135	12.840000 	7.160000  	0.000000  	0.000000  	1000.00000
Nod_103         	13.970000 	2.000000  	0.000000  	0.000000  	0.000000  
Nod_104         	13.780000 	2.000000  	0.000000  	0.000000  	0.000000  
Nod_105         	13.760000 	2.000000  	0.000000  	0.000000  	0.000000  
Nod_106         	13.570000 	2.000000  	0.000000  	0.000000  	0.000000  
Nod_107         	13.550000 	2.000000  	0.000000  	0.000000  	0.000000  
Nod_108         	11.200000 	9.800000  	0.000000  	0.000000  	1000.00000
Nod_109         	11.520000 	28.480000 	0.000000  	0.000000  	1000.00000
Nod_110         	13.540000 	7.460000  	0.000000  	0.000000  	1000.00000
Nod_111         	13.470000 	7.530000  	0.000000  	0.000000  	1000.00000
Nod_112         	12.840000 	8.160000  	0.000000  	0.000000  	1000.00000
Nod_113         	12.800000 	8.200000  	0.000000  	0.000000  	1000.00000
Nod_114         	12.770000 	8.230000  	0.000000  	0.000000  	1000.00000
Nod_115         	12.700000 	8.300000  	0.000000  	0.000000  	1000.00000
Nod_116         	12.670000 	8.330000  	0.000000  	0.000000  	1000.00000
Nod_117         	12.270000 	8.730000  	0.000000  	0.000000  	1000.00000
Nod_118         	11.910000 	9.090000  	0.000000  	0.000000  	1000.00000
Nod_119         	11.440000 	28.560000 	0.000000  	0.000000  	1000.00000
Nod_120         	11.370000 	28.630000 	0.000000  	0.000000  	1000.00000
Nod_121         	11.260000 	28.740000 	0.000000  	0.000000  	1000.00000
Nod_122         	11.140000 	28.860000 	0.000000  	0.000000  	1000.00000
Nod_123         	11.090000 	28.910000 	0.000000  	0.000000  	1000.00000
Nod_124         	11.010000 	28.990000 	0.000000  	0.000000  	1000.00000
Nod_126         	17.170000 	2.830000  	0.000000  	0.000000  	1000.00000
Nod_127         	18.010000 	11.990000 	0.000000  	999.000000	1000.00000
Nod_128         	17.720000 	3.280000  	0.000000  	0.000000  	1000.00000
Nod_129         	15.640000 	5.360000  	0.000000  	0.000000  	1000.00000
Nod_130         	15.060000 	5.940000  	0.000000  	0.000000  	1000.00000
Nod_131         	14.540000 	6.460000  	0.000000  	0.000000  	1000.00000
Nod_132         	14.330000 	6.670000  	0.000000  	0.000000  	1000.00000
Nod_133         	14.280000 	6.720000  	0.000000  	0.000000  	1000.00000
Nod_134         	14.100000 	6.900000  	0.000000  	0.000000  	1000.00000
Nod_135         	14.050000 	6.950000  	0.000000  	0.000000  	1000.00000
Nod_136         	13.930000 	7.070000  	0.000000  	0.000000  	1000.00000
Nod_222         	11.200000 	9.800000  	0.000000  	0.000000  	1000.00000
Nod_233         	11.520000 	28.480000 	0.000000  	0.000000  	1000.00000
Nod_244         	11.440000 	28.560000 	0.000000  	0.000000  	1000.00000
Nod_266         	11.370000 	28.630000 	0.000000  	0.000000  	1000.00000
Nod_277         	11.260000 	28.740000 	0.000000  	0.000000  	1000.00000

[OUTFALLS]
;;Name          	Elevation 	Type      	Stage Data      	Gated   	Route To        
;;--------------	----------	----------	----------------	--------	----------------
cso_Geldrop     	4.6231    	FREE      	                	NO      	                
cso_gb_136      	1         	FREE      	                	NO      	                
cso_RZ          	16.070000 	FREE      	                	NO      	                
cso_ES_2        	8         	FREE      	                	NO      	                
cso_ES_1        	1.25      	FREE      	                	NO      	                
cso_AALST       	0         	FREE      	                	NO      	                
out_ES          	0         	FREE      	                	NO      	                
out_RZ          	0         	FREE      	                	NO      	                

[STORAGE]
;;Name          	Elev.   	MaxDepth  	InitDepth 	Shape     	Curve Type/Params           	SurDepth 	Fevap   	Psi     	Ksat    	IMD     
;;--------------	--------	----------	-----------	----------	----------------------------	---------	--------	        	--------	--------
c_24_vr_storage_175	0       	10        	0         	PYRAMIDAL 	1000      	1000      	0       	0        	0       
c_23_vr_storage_7	0       	10        	0         	PYRAMIDAL 	1000      	1000      	0       	0        	0       
c_22_vr_storage_5	0       	10        	0         	PYRAMIDAL 	1000      	1000      	0       	0        	0       
c_21_vr_storage_7	0       	10        	0         	PYRAMIDAL 	1000      	1000      	0       	0        	0       
c_12_vr_storage_8	0       	10        	0         	PYRAMIDAL 	1000      	1000      	0       	0        	0       
c_20_vr_storage_13	0       	10        	0         	PYRAMIDAL 	1000      	1000      	0       	0        	0       
c_19_vr_storage_7	0       	10        	0         	PYRAMIDAL 	1000      	1000      	0       	0        	0       
c_10_vr_storage_10	0       	10        	0         	PYRAMIDAL 	1000      	1000      	0       	0        	0       
c_16_vr_storage_20	0       	10        	0         	PYRAMIDAL 	1000      	1000      	0       	0        	0       
c_15_vr_storage_24	0       	10        	0         	PYRAMIDAL 	1000      	1000      	0       	0        	0       
c_14_vr_storage_24	0       	10        	0         	PYRAMIDAL 	1000      	1000      	0       	0        	0       
pipe_ES         	10      	3         	0         	PYRAMIDAL 	100       	1000      	0       	0        	0       
pipe_Geldrop    	15.06   	5         	0         	PYRAMIDAL 	100       	100       	0       	0        	0       
gb_136          	16.45   	1.5       	0         	PYRAMIDAL 	10        	100       	0       	0        	0       
c_129_vr_storage_2	0       	10        	0         	PYRAMIDAL 	1000      	1000      	0       	0        	0       
c_128_vr_storage_64	0       	10        	0         	PYRAMIDAL 	1000      	1000      	0       	0        	0       
c_1285_vr_storage_10	0       	10        	0         	PYRAMIDAL 	1000      	1000      	0       	0        	0       
c_127_vr_storage_46	0       	10        	0         	PYRAMIDAL 	1000      	1000      	0       	0        	0       
c_126_vr_storage_16	0       	10        	0         	PYRAMIDAL 	1000      	1000      	0       	0        	0       
c_125_vr_storage_8	0       	10        	0         	PYRAMIDAL 	1000      	1000      	0       	0        	0       
c_124_storage   	14.22   	10        	0         	PYRAMIDAL 	1000      	1000      	0       	0        	0       
c_136_vr_storage_28	0       	10        	0         	PYRAMIDAL 	1000      	1000      	0       	0        	0       
c_135_vr_storage_18	0       	10        	0         	PYRAMIDAL 	1000      	1000      	0       	0        	0       
c_131_vr_storage_18	0       	10        	0         	PYRAMIDAL 	1000      	1000      	0       	0        	0       
c_130_vr_storage_8	0       	10        	0         	PYRAMIDAL 	1000      	1000      	0       	0        	0       
c_134_vr_storage_8	0       	10        	0         	PYRAMIDAL 	1000      	1000      	0       	0        	0       
c_132_vr_storage_8	0       	10        	0         	PYRAMIDAL 	1000      	1000      	0       	0        	0       
Aalst_gemaal    	0       	2         	0         	PYRAMIDAL 	100       	1000      	0       	0        	0       
Mierlo_1        	14.8    	4.100000  	0.000000  	TABULAR   	mierlo_kelder               	0        	0       
pre_ontvangstkelder	8       	29.01     	0         	TABULAR   	ont_keld                    	0        	0       
Eindhoven       	10      	7         	0         	TABULAR   	Curve_Storein               	0        	0       
c_150_vr_storage_57	0       	10        	0         	PYRAMIDAL 	1000      	1000      	0       	0        	0       
c_123_vr_storage_40	0       	10        	0         	PYRAMIDAL 	1000      	1000      	0       	0        	0       
c_143_vr_storage_70	0       	10        	0         	PYRAMIDAL 	1000      	1000      	0       	0        	0       
c_147_vr_storage_4	0       	10        	0         	PYRAMIDAL 	1000      	1000      	0       	0        	0       
c_160_vr_storage_8	0       	10        	0         	PYRAMIDAL 	1000      	1000      	0       	0        	0       
c_145_vr_storage_4	0       	10        	0         	PYRAMIDAL 	1000      	1000      	0       	0        	0       
c_144_vr_storage_19	0       	10        	0         	PYRAMIDAL 	1000      	1000      	0       	0        	0       
c_142_vr_storage_35	0       	10        	0         	PYRAMIDAL 	1000      	1000      	0       	0        	0       
c_148_vr_storage_12	0       	10        	0         	PYRAMIDAL 	1000      	1000      	0       	0        	0       
c_149_vr_storage_17	0       	10        	0         	PYRAMIDAL 	1000      	1000      	0       	0        	0       
c_151_vr_storage_22	0       	10        	0         	PYRAMIDAL 	1000      	1000      	0       	0        	0       
c_161_vr_storage_32	0       	10        	0         	PYRAMIDAL 	1000      	1000      	0       	0        	0       
c_138_vr_storage_22	0       	10        	0         	PYRAMIDAL 	1000      	1000      	0       	0        	0       
c_139_vr_storage_8	0       	10        	0         	PYRAMIDAL 	1000      	1000      	0       	0        	0       
c_137_vr_storage_4	0       	10        	0         	PYRAMIDAL 	1000      	1000      	0       	0        	0       
c_122_vr_storage_29	0       	10        	0         	PYRAMIDAL 	1000      	1000      	0       	0        	0       
c_121_vr_storage_12	0       	10        	0         	PYRAMIDAL 	1000      	1000      	0       	0        	0       
c_120_vr_storage_8	0       	10        	0         	PYRAMIDAL 	1000      	1000      	0       	0        	0       
c_119_vr_storage_80	0       	10        	0         	PYRAMIDAL 	1000      	1000      	0       	0        	0       
c_100_vr_storage_10	0       	10        	0         	PYRAMIDAL 	1000      	1000      	0       	0        	0       
c_118_vr_storage_13	0       	10        	0         	PYRAMIDAL 	1000      	1000      	0       	0        	0       
c_116_vr_storage_15	0       	10        	0         	PYRAMIDAL 	1000      	1000      	0       	0        	0       
c_114_vr_storage_10	0       	10        	0         	PYRAMIDAL 	1000      	1000      	0       	0        	0       
c_112_vr_storage_21	0       	10        	0         	PYRAMIDAL 	1000      	1000      	0       	0        	0       
c_107_vr_storage_36	0       	10        	0         	PYRAMIDAL 	1000      	1000      	0       	0        	0       
c_107_2_vr_storage_12	0       	10        	0         	PYRAMIDAL 	1000      	1000      	0       	0        	0       
c_106_vr_storage_13	0       	10        	0         	PYRAMIDAL 	1000      	1000      	0       	0        	0       
c_99_vr_storage_41	0       	10        	0         	PYRAMIDAL 	1000      	1000      	0       	0        	0       
c_103_vr_storage_8	0       	10        	0         	PYRAMIDAL 	1000      	1000      	0       	0        	0       
c_98_vr_storage_20	0       	10        	0         	PYRAMIDAL 	1000      	1000      	0       	0        	0       

[CONDUITS]
;;Name          	From Node       	To Node         	Length    	Roughness 	InOffset  	OutOffset 	InitFlow  	MaxFlow   
;;--------------	----------------	----------------	----------	----------	----------	----------	----------	----------
Con_161         	Mierlo_2        	Mierlo_1        	15.000000 	0.001     	0.000000  	1.040000  	0.000000  	0         
Con_158         	Nod_890         	Nod_891         	199.703806	0.002     	0.000000  	0.000000  	0.2       	0         
Con_159         	Nod_891         	Nod_892         	151.624437	0.014431  	0.000000  	0.000000  	0.2       	0         
Con_160         	Nod_892         	Nod_A*HLCMRZ1135	59.705529 	0.014431  	0.000000  	0.000000  	0.2       	0         
Con_101         	Nod_103         	Nod_100         	1071.545818	0.028     	0.2       	0.000000  	0.000000  	0         
Con_102         	Nod_104         	Nod_103         	408.465678	0.025     	0.000000  	0.000000  	0.000000  	0         
Con_103         	Nod_105         	Nod_106         	412.461986	0.015     	0.000000  	0.000000  	0.2       	0         
Con_104         	Nod_105         	Nod_104         	27.060118 	0.014431  	0.000000  	0.000000  	0.2       	0         